Version 4
SHEET 1 1212 680
WIRE -3488 -208 -3488 -256
WIRE -3488 -208 -3680 -208
WIRE -3424 -208 -3488 -208
WIRE -3296 -208 -3344 -208
WIRE -3264 -208 -3296 -208
WIRE -3168 -208 -3200 -208
WIRE -3088 -208 -3088 -224
WIRE -3088 -208 -3168 -208
WIRE -3168 -176 -3168 -208
WIRE -3488 -128 -3488 -208
WIRE -3168 -80 -3168 -112
WIRE -3088 -80 -3088 -208
WIRE -3296 -48 -3296 -208
WIRE -3296 -48 -3360 -48
WIRE -3920 -16 -3920 -48
WIRE -3088 16 -3088 -16
WIRE -3088 16 -3360 16
WIRE -2976 16 -2976 -16
WIRE -2976 16 -3008 16
WIRE -2976 64 -2976 16
WIRE -3280 80 -3360 80
WIRE -3184 80 -3200 80
WIRE -3920 176 -3920 64
WIRE -3680 176 -3680 -144
WIRE -3488 176 -3488 160
WIRE -3184 176 -3184 144
WIRE -2976 176 -2976 144
FLAG -2976 176 0
FLAG -3184 176 0
FLAG -3168 -80 0
FLAG -3680 176 0
FLAG -3488 176 0
FLAG -3088 -224 24V
FLAG -2976 -16 LED-GND
FLAG -3920 176 0
FLAG -3920 -48 12V
FLAG -3488 -256 12V
SYMBOL res -2992 48 R0
SYMATTR InstName R21
SYMATTR Value 5
SYMBOL res -2992 0 R90
WINDOW 0 0 56 VBottom 2
WINDOW 3 32 56 VTop 2
SYMATTR InstName R22
SYMATTR Value 10k
SYMBOL zener -3072 -16 R180
WINDOW 0 24 64 Left 2
WINDOW 3 45 -13 Left 2
SYMATTR InstName D28
SYMATTR Value EDZV27B
SYMATTR Description Diode
SYMATTR Type diode
SYMBOL PowerProducts\\LT1170 -3488 16 R0
SYMATTR InstName U5
SYMBOL res -3184 64 R90
WINDOW 0 0 56 VBottom 2
WINDOW 3 32 56 VTop 2
SYMATTR InstName R23
SYMATTR Value 1k
SYMBOL cap -3200 80 R0
SYMATTR InstName C4
SYMATTR Value 1µ
SYMBOL ind -3328 -224 R90
WINDOW 0 5 56 VBottom 2
WINDOW 3 32 56 VTop 2
SYMATTR InstName L1
SYMATTR Value 100µ
SYMATTR SpiceLine Rser=0.1
SYMBOL schottky -3264 -192 R270
WINDOW 0 32 32 VTop 2
WINDOW 3 -9 3 VBottom 2
SYMATTR InstName D29
SYMATTR Value MBR20100CT
SYMATTR Description Diode
SYMATTR Type diode
SYMBOL cap -3184 -176 R0
SYMATTR InstName C5
SYMATTR Value 47µ
SYMBOL cap -3696 -208 R0
SYMATTR InstName C6
SYMATTR Value 100µ
SYMBOL voltage -3920 -32 R0
WINDOW 3 24 44 Left 2
WINDOW 123 0 0 Left 2
WINDOW 39 0 0 Left 2
SYMATTR Value 12
SYMATTR InstName V6
TEXT -3954 200 Left 2 !.tran 150m
